9
	Energy:       4.1390592
C          0.18054        0.70090       -0.17035
C         -0.57573       -0.31802        0.66833
O         -1.68780        0.29601        1.25641
H         -0.47875        1.10043       -0.97003
H          1.06424        0.21913       -0.63955
H          0.52565        1.54028        0.47005
H         -0.90690       -1.14967        0.00736
H          0.10499       -0.70653        1.45819
H         -2.14116       -0.40886        1.78789
